13-顺视黄醛.mol
  ChemDraw12082510302D

 21 21  0  0  0  0  0  0  0  0999 V2000
    3.2152   -1.3885    0.0000 C   0  0  0  0  0  0  0  0  0  0  0  0
    3.2152   -0.5635    0.0000 C   0  0  0  0  0  0  0  0  0  0  0  0
    2.5007   -0.1510    0.0000 C   0  0  0  0  0  0  0  0  0  0  0  0
    2.5007    0.6740    0.0000 C   0  0  0  0  0  0  0  0  0  0  0  0
    3.2152    1.0865    0.0000 C   0  0  0  0  0  0  0  0  0  0  0  0
    3.9296    0.6740    0.0000 C   0  0  0  0  0  0  0  0  0  0  0  0
    3.9296   -0.1510    0.0000 C   0  0  0  0  0  0  0  0  0  0  0  0
    1.6757    0.6740    0.0000 C   0  0  0  0  0  0  0  0  0  0  0  0
    2.0882    1.3885    0.0000 C   0  0  0  0  0  0  0  0  0  0  0  0
    1.7863   -0.5635    0.0000 C   0  0  0  0  0  0  0  0  0  0  0  0
    1.0718   -0.1510    0.0000 C   0  0  0  0  0  0  0  0  0  0  0  0
    0.3571   -0.5635    0.0000 C   0  0  0  0  0  0  0  0  0  0  0  0
   -0.3574   -0.1510    0.0000 C   0  0  0  0  0  0  0  0  0  0  0  0
   -1.0718   -0.5635    0.0000 C   0  0  0  0  0  0  0  0  0  0  0  0
   -1.7863   -0.1510    0.0000 C   0  0  0  0  0  0  0  0  0  0  0  0
   -1.7863    0.6740    0.0000 C   0  0  0  0  0  0  0  0  0  0  0  0
   -2.5007    1.0865    0.0000 C   0  0  0  0  0  0  0  0  0  0  0  0
   -3.2152    0.6740    0.0000 C   0  0  0  0  0  0  0  0  0  0  0  0
   -3.9296    1.0865    0.0000 O   0  0  0  0  0  0  0  0  0  0  0  0
   -1.0718    1.0865    0.0000 C   0  0  0  0  0  0  0  0  0  0  0  0
    0.3571   -1.3885    0.0000 C   0  0  0  0  0  0  0  0  0  0  0  0
  1  2  1  0      
  2  3  2  0      
  3  4  1  0      
  4  5  1  0      
  5  6  1  0      
  6  7  1  0      
  2  7  1  0      
  4  8  1  0      
  4  9  1  0      
  3 10  1  0      
 10 11  2  0      
 11 12  1  0      
 12 13  2  0      
 13 14  1  0      
 14 15  2  0      
 15 16  1  0      
 16 17  2  0      
 17 18  1  0      
 18 19  2  0      
 16 20  1  0      
 12 21  1  0      
M  END
