β-胡萝卜素（反）.mol
  ChemDraw12082510302D

 40 41  0  0  0  0  0  0  0  0999 V2000
   -7.5020    1.0314    0.0000 C   0  0  0  0  0  0  0  0  0  0  0  0
   -7.5020    0.2064    0.0000 C   0  0  0  0  0  0  0  0  0  0  0  0
   -6.7876   -0.2061    0.0000 C   0  0  0  0  0  0  0  0  0  0  0  0
   -6.7876   -1.0311    0.0000 C   0  0  0  0  0  0  0  0  0  0  0  0
   -7.5020   -1.4436    0.0000 C   0  0  0  0  0  0  0  0  0  0  0  0
   -8.2164   -1.0311    0.0000 C   0  0  0  0  0  0  0  0  0  0  0  0
   -8.2164   -0.2061    0.0000 C   0  0  0  0  0  0  0  0  0  0  0  0
   -5.9626   -1.0311    0.0000 C   0  0  0  0  0  0  0  0  0  0  0  0
   -6.3751   -1.7458    0.0000 C   0  0  0  0  0  0  0  0  0  0  0  0
   -6.0731    0.2064    0.0000 C   0  0  0  0  0  0  0  0  0  0  0  0
   -5.3587   -0.2061    0.0000 C   0  0  0  0  0  0  0  0  0  0  0  0
   -4.6442    0.2064    0.0000 C   0  0  0  0  0  0  0  0  0  0  0  0
   -3.9298   -0.2061    0.0000 C   0  0  0  0  0  0  0  0  0  0  0  0
   -3.2150    0.2064    0.0000 C   0  0  0  0  0  0  0  0  0  0  0  0
   -2.5006   -0.2061    0.0000 C   0  0  0  0  0  0  0  0  0  0  0  0
   -1.7861    0.2061    0.0000 C   0  0  0  0  0  0  0  0  0  0  0  0
   -1.0717   -0.2064    0.0000 C   0  0  0  0  0  0  0  0  0  0  0  0
   -0.3572    0.2061    0.0000 C   0  0  0  0  0  0  0  0  0  0  0  0
    0.3572   -0.2064    0.0000 C   0  0  0  0  0  0  0  0  0  0  0  0
    1.0717    0.2061    0.0000 C   0  0  0  0  0  0  0  0  0  0  0  0
    1.7861   -0.2064    0.0000 C   0  0  0  0  0  0  0  0  0  0  0  0
    1.7861   -1.0314    0.0000 C   0  0  0  0  0  0  0  0  0  0  0  0
    2.5006    0.2061    0.0000 C   0  0  0  0  0  0  0  0  0  0  0  0
    3.2150   -0.2064    0.0000 C   0  0  0  0  0  0  0  0  0  0  0  0
    3.9295    0.2061    0.0000 C   0  0  0  0  0  0  0  0  0  0  0  0
    4.6439   -0.2064    0.0000 C   0  0  0  0  0  0  0  0  0  0  0  0
    4.6439   -1.0314    0.0000 C   0  0  0  0  0  0  0  0  0  0  0  0
    5.3584    0.2061    0.0000 C   0  0  0  0  0  0  0  0  0  0  0  0
    6.0731   -0.2064    0.0000 C   0  0  0  0  0  0  0  0  0  0  0  0
    6.7875    0.2061    0.0000 C   0  0  0  0  0  0  0  0  0  0  0  0
    7.5020   -0.2064    0.0000 C   0  0  0  0  0  0  0  0  0  0  0  0
    7.5020   -1.0314    0.0000 C   0  0  0  0  0  0  0  0  0  0  0  0
    8.2164    0.2061    0.0000 C   0  0  0  0  0  0  0  0  0  0  0  0
    8.2164    1.0311    0.0000 C   0  0  0  0  0  0  0  0  0  0  0  0
    7.5020    1.4436    0.0000 C   0  0  0  0  0  0  0  0  0  0  0  0
    6.7875    1.0311    0.0000 C   0  0  0  0  0  0  0  0  0  0  0  0
    5.9625    1.0311    0.0000 C   0  0  0  0  0  0  0  0  0  0  0  0
    6.3750    1.7458    0.0000 C   0  0  0  0  0  0  0  0  0  0  0  0
   -1.7861    1.0311    0.0000 C   0  0  0  0  0  0  0  0  0  0  0  0
   -4.6442    1.0314    0.0000 C   0  0  0  0  0  0  0  0  0  0  0  0
  1  2  1  0      
  2  3  2  0      
  3  4  1  0      
  4  5  1  0      
  5  6  1  0      
  6  7  1  0      
  2  7  1  0      
  4  8  1  0      
  4  9  1  0      
  3 10  1  0      
 10 11  2  0      
 11 12  1  0      
 12 13  2  0      
 13 14  1  0      
 14 15  2  0      
 15 16  1  0      
 16 17  2  0      
 17 18  1  0      
 18 19  2  0      
 19 20  1  0      
 20 21  2  0      
 21 22  1  0      
 21 23  1  0      
 23 24  2  0      
 24 25  1  0      
 25 26  2  0      
 26 27  1  0      
 26 28  1  0      
 28 29  2  0      
 29 30  1  0      
 30 31  2  0      
 31 32  1  0      
 31 33  1  0      
 33 34  1  0      
 34 35  1  0      
 35 36  1  0      
 30 36  1  0      
 36 37  1  0      
 36 38  1  0      
 16 39  1  0      
 12 40  1  0      
M  END
