β-胡萝卜素（顺）.mol
  ChemDraw12082510312D

 40 41  0  0  0  0  0  0  0  0999 V2000
    7.5571    1.1822    0.0000 C   0  0  0  0  0  0  0  0  0  0  0  0
    6.8427    1.5947    0.0000 C   0  0  0  0  0  0  0  0  0  0  0  0
    6.1282    1.1822    0.0000 C   0  0  0  0  0  0  0  0  0  0  0  0
    5.4138    1.5947    0.0000 C   0  0  0  0  0  0  0  0  0  0  0  0
    5.4138    2.4197    0.0000 C   0  0  0  0  0  0  0  0  0  0  0  0
    6.1282    2.8322    0.0000 C   0  0  0  0  0  0  0  0  0  0  0  0
    6.8427    2.4197    0.0000 C   0  0  0  0  0  0  0  0  0  0  0  0
    5.0013    0.8803    0.0000 C   0  0  0  0  0  0  0  0  0  0  0  0
    4.5888    1.5947    0.0000 C   0  0  0  0  0  0  0  0  0  0  0  0
    6.1282    0.3572    0.0000 C   0  0  0  0  0  0  0  0  0  0  0  0
    5.4138   -0.0553    0.0000 C   0  0  0  0  0  0  0  0  0  0  0  0
    5.4138   -0.8803    0.0000 C   0  0  0  0  0  0  0  0  0  0  0  0
    4.6993   -1.2928    0.0000 C   0  0  0  0  0  0  0  0  0  0  0  0
    3.9849   -0.8803    0.0000 C   0  0  0  0  0  0  0  0  0  0  0  0
    3.1599   -0.8803    0.0000 C   0  0  0  0  0  0  0  0  0  0  0  0
    2.4454   -1.2928    0.0000 C   0  0  0  0  0  0  0  0  0  0  0  0
    1.7310   -0.8803    0.0000 C   0  0  0  0  0  0  0  0  0  0  0  0
    1.0165   -1.2928    0.0000 C   0  0  0  0  0  0  0  0  0  0  0  0
    0.3021   -0.8803    0.0000 C   0  0  0  0  0  0  0  0  0  0  0  0
   -0.4126   -1.2928    0.0000 C   0  0  0  0  0  0  0  0  0  0  0  0
   -1.1271   -0.8803    0.0000 C   0  0  0  0  0  0  0  0  0  0  0  0
   -1.1271   -0.0553    0.0000 C   0  0  0  0  0  0  0  0  0  0  0  0
   -1.8415   -1.2928    0.0000 C   0  0  0  0  0  0  0  0  0  0  0  0
   -2.5560   -0.8803    0.0000 C   0  0  0  0  0  0  0  0  0  0  0  0
   -3.2704   -1.2928    0.0000 C   0  0  0  0  0  0  0  0  0  0  0  0
   -3.9849   -0.8803    0.0000 C   0  0  0  0  0  0  0  0  0  0  0  0
   -3.9849   -0.0553    0.0000 C   0  0  0  0  0  0  0  0  0  0  0  0
   -4.6993   -1.2928    0.0000 C   0  0  0  0  0  0  0  0  0  0  0  0
   -5.4138   -0.8803    0.0000 C   0  0  0  0  0  0  0  0  0  0  0  0
   -6.1282   -1.2928    0.0000 C   0  0  0  0  0  0  0  0  0  0  0  0
   -6.8427   -0.8803    0.0000 C   0  0  0  0  0  0  0  0  0  0  0  0
   -6.8427   -0.0553    0.0000 C   0  0  0  0  0  0  0  0  0  0  0  0
   -7.5571   -1.2928    0.0000 C   0  0  0  0  0  0  0  0  0  0  0  0
   -7.5571   -2.1178    0.0000 C   0  0  0  0  0  0  0  0  0  0  0  0
   -6.8427   -2.5303    0.0000 C   0  0  0  0  0  0  0  0  0  0  0  0
   -6.1282   -2.1178    0.0000 C   0  0  0  0  0  0  0  0  0  0  0  0
   -5.3032   -2.1178    0.0000 C   0  0  0  0  0  0  0  0  0  0  0  0
   -5.7157   -2.8322    0.0000 C   0  0  0  0  0  0  0  0  0  0  0  0
    2.4454   -2.1178    0.0000 C   0  0  0  0  0  0  0  0  0  0  0  0
    6.1282   -1.2928    0.0000 C   0  0  0  0  0  0  0  0  0  0  0  0
  1  2  1  0      
  2  3  2  0      
  3  4  1  0      
  4  5  1  0      
  5  6  1  0      
  6  7  1  0      
  2  7  1  0      
  4  8  1  0      
  4  9  1  0      
  3 10  1  0      
 10 11  2  0      
 11 12  1  0      
 12 13  2  0      
 13 14  1  0      
 14 15  2  0      
 15 16  1  0      
 16 17  2  0      
 17 18  1  0      
 18 19  2  0      
 19 20  1  0      
 20 21  2  0      
 21 22  1  0      
 21 23  1  0      
 23 24  2  0      
 24 25  1  0      
 25 26  2  0      
 26 27  1  0      
 26 28  1  0      
 28 29  2  0      
 29 30  1  0      
 30 31  2  0      
 31 32  1  0      
 31 33  1  0      
 33 34  1  0      
 34 35  1  0      
 35 36  1  0      
 30 36  1  0      
 36 37  1  0      
 36 38  1  0      
 16 39  1  0      
 12 40  1  0      
M  END
