硫靛蓝（反）.mol
  ChemDraw12082510352D

 20 23  0  0  0  0  0  0  0  0999 V2000
   -0.6424   -1.4521    0.0000 O   0  0  0  0  0  0  0  0  0  0  0  0
   -0.8973   -0.6673    0.0000 C   0  0  0  0  0  0  0  0  0  0  0  0
   -1.6822   -0.4124    0.0000 C   0  0  0  0  0  0  0  0  0  0  0  0
   -2.3966   -0.8249    0.0000 C   0  0  0  0  0  0  0  0  0  0  0  0
   -3.1111   -0.4124    0.0000 C   0  0  0  0  0  0  0  0  0  0  0  0
   -3.1111    0.4126    0.0000 C   0  0  0  0  0  0  0  0  0  0  0  0
   -2.3966    0.8251    0.0000 C   0  0  0  0  0  0  0  0  0  0  0  0
   -1.6822    0.4126    0.0000 C   0  0  0  0  0  0  0  0  0  0  0  0
   -0.8973    0.6676    0.0000 S   0  0  0  0  0  0  0  0  0  0  0  0
   -0.4125    0.0001    0.0000 C   0  0  0  0  0  0  0  0  0  0  0  0
    0.4125    0.0001    0.0000 C   0  0  0  0  0  0  0  0  0  0  0  0
    0.8973   -0.6673    0.0000 S   0  0  0  0  0  0  0  0  0  0  0  0
    1.6822   -0.4124    0.0000 C   0  0  0  0  0  0  0  0  0  0  0  0
    2.3966   -0.8249    0.0000 C   0  0  0  0  0  0  0  0  0  0  0  0
    3.1111   -0.4124    0.0000 C   0  0  0  0  0  0  0  0  0  0  0  0
    3.1111    0.4126    0.0000 C   0  0  0  0  0  0  0  0  0  0  0  0
    2.3966    0.8251    0.0000 C   0  0  0  0  0  0  0  0  0  0  0  0
    1.6822    0.4126    0.0000 C   0  0  0  0  0  0  0  0  0  0  0  0
    0.8973    0.6676    0.0000 C   0  0  0  0  0  0  0  0  0  0  0  0
    0.6424    1.4521    0.0000 O   0  0  0  0  0  0  0  0  0  0  0  0
  1  2  2  0      
  2  3  1  0      
  3  4  2  0      
  4  5  1  0      
  5  6  2  0      
  6  7  1  0      
  7  8  2  0      
  3  8  1  0      
  8  9  1  0      
  9 10  1  0      
  2 10  1  0      
 10 11  2  0      
 11 12  1  0      
 12 13  1  0      
 13 14  2  0      
 14 15  1  0      
 15 16  2  0      
 16 17  1  0      
 17 18  2  0      
 13 18  1  0      
 18 19  1  0      
 11 19  1  0      
 19 20  2  0      
M  END
